<types>
   <type id="highway.twolanes" numLanes="2" speed="33.33"/>
</types>
